optran: no such command available in ngspice

Compatibility modes selected: hs a

Warning: m=xx on .subckt line will override multiplier m hierarchy!

Warning: redefinition of .subckt sky130_fd_pr__res_generic_po, ignored
Warning: redefinition of .subckt sky130_fd_pr__res_generic_nd, ignored
Warning: redefinition of .subckt sky130_fd_pr__res_generic_pd, ignored
Warning: redefinition of .subckt sky130_fd_pr__pnp_05v5_w0p68l0p68, ignored
Warning: redefinition of .subckt sky130_fd_pr__model__parasitic__res_po, ignored
Warning: redefinition of .subckt sky130_fd_pr__res_xhigh_po, ignored
Warning: redefinition of .subckt sky130_fd_pr__res_high_po, ignored
Warning: redefinition of .subckt sky130_fd_pr__res_xhigh_po_0p35, ignored
Warning: redefinition of .subckt sky130_fd_pr__res_xhigh_po_0p69, ignored
Warning: redefinition of .subckt sky130_fd_pr__res_xhigh_po_1p41, ignored
Warning: redefinition of .subckt sky130_fd_pr__res_xhigh_po_2p85, ignored
Warning: redefinition of .subckt sky130_fd_pr__res_xhigh_po_5p73, ignored
Warning: redefinition of .subckt sky130_fd_pr__res_xhigh_po__base, ignored
Warning: redefinition of .subckt sky130_fd_pr__res_high_po_0p35, ignored
Warning: redefinition of .subckt sky130_fd_pr__res_high_po_0p69, ignored
Warning: redefinition of .subckt sky130_fd_pr__res_high_po_1p41, ignored
Warning: redefinition of .subckt sky130_fd_pr__res_high_po_2p85, ignored
Warning: redefinition of .subckt sky130_fd_pr__res_high_po_5p73, ignored

Circuit: * /home/nityanand.singh310/esim-workspace/final/final.cir

option SCALE: Scale is set to 1e-06 for instance and model parameters
Reducing trtol to 1 for xspice 'A' devices
Doing analysis at TEMP = 27.000000 and TNOM = 27.000000

Warning: include: has no value, DC 0 assumed
Warning: v2: no DC value, transient time 0 value used
=============nityanand_counterr : New Iteration===========
Instance : 0

Inside foo before eval.....
clk=0
rstn=0
out=0

Inside foo after eval.....
clk=0
rstn=0
out=0
=============nityanand_counterr : New Iteration===========
Instance : 0

Inside foo before eval.....
clk=0
rstn=0
out=0

Inside foo after eval.....
clk=0
rstn=0
out=0
=============nityanand_counterr : New Iteration===========
Instance : 0

Inside foo before eval.....
clk=0
rstn=0
out=0

Inside foo after eval.....
clk=1
rstn=1
out=1
=============nityanand_counterr : New Iteration===========
Instance : 0

Inside foo before eval.....
clk=1
rstn=1
out=1

Inside foo after eval.....
clk=1
rstn=1
out=1
=============nityanand_counterr : New Iteration===========
Instance : 0

Inside foo before eval.....
clk=1
rstn=1
out=1

Inside foo after eval.....
clk=1
rstn=0
out=1
=============nityanand_counterr : New Iteration===========
Instance : 0

Inside foo before eval.....
clk=1
rstn=0
out=1

Inside foo after eval.....
clk=1
rstn=0
out=1
=============nityanand_counterr : New Iteration===========
Instance : 0

Inside foo before eval.....
clk=1
rstn=0
out=1

Inside foo after eval.....
clk=0
rstn=0
out=1
=============nityanand_counterr : New Iteration===========
Instance : 0

Inside foo before eval.....
clk=0
rstn=0
out=1

Inside foo after eval.....
clk=1
rstn=0
out=0
=============nityanand_counterr : New Iteration===========
Instance : 0

Inside foo before eval.....
clk=1
rstn=0
out=0

Inside foo after eval.....
clk=1
rstn=0
out=0
=============nityanand_counterr : New Iteration===========
Instance : 0

Inside foo before eval.....
clk=1
rstn=0
out=0

Inside foo after eval.....
clk=1
rstn=0
out=0
=============nityanand_counterr : New Iteration===========
Instance : 0

Inside foo before eval.....
clk=1
rstn=0
out=0

Inside foo after eval.....
clk=0
rstn=0
out=0
=============nityanand_counterr : New Iteration===========
Instance : 0

Inside foo before eval.....
clk=0
rstn=0
out=0

Inside foo after eval.....
clk=1
rstn=0
out=0
=============nityanand_counterr : New Iteration===========
Instance : 0

Inside foo before eval.....
clk=1
rstn=0
out=0

Inside foo after eval.....
clk=1
rstn=0
out=0
=============nityanand_counterr : New Iteration===========
Instance : 0

Inside foo before eval.....
clk=1
rstn=0
out=0

Inside foo after eval.....
clk=1
rstn=0
out=0
=============nityanand_counterr : New Iteration===========
Instance : 0

Inside foo before eval.....
clk=1
rstn=0
out=0

Inside foo after eval.....
clk=0
rstn=0
out=0
=============nityanand_counterr : New Iteration===========
Instance : 0

Inside foo before eval.....
clk=0
rstn=0
out=0

Inside foo after eval.....
clk=1
rstn=0
out=0
=============nityanand_counterr : New Iteration===========
Instance : 0

Inside foo before eval.....
clk=1
rstn=0
out=0

Inside foo after eval.....
clk=1
rstn=0
out=0
=============nityanand_counterr : New Iteration===========
Instance : 0

Inside foo before eval.....
clk=1
rstn=0
out=0

Inside foo after eval.....
clk=1
rstn=1
out=0
=============nityanand_counterr : New Iteration===========
Instance : 0

Inside foo before eval.....
clk=1
rstn=1
out=0

Inside foo after eval.....
clk=1
rstn=1
out=0
=============nityanand_counterr : New Iteration===========
Instance : 0

Inside foo before eval.....
clk=1
rstn=1
out=0

Inside foo after eval.....
clk=1
rstn=1
out=0
=============nityanand_counterr : New Iteration===========
Instance : 0

Inside foo before eval.....
clk=1
rstn=1
out=0

Inside foo after eval.....
clk=0
rstn=1
out=0
=============nityanand_counterr : New Iteration===========
Instance : 0

Inside foo before eval.....
clk=0
rstn=1
out=0

Inside foo after eval.....
clk=1
rstn=1
out=1
=============nityanand_counterr : New Iteration===========
Instance : 0

Inside foo before eval.....
clk=1
rstn=1
out=1

Inside foo after eval.....
clk=1
rstn=1
out=1
=============nityanand_counterr : New Iteration===========
Instance : 0

Inside foo before eval.....
clk=1
rstn=1
out=1

Inside foo after eval.....
clk=1
rstn=1
out=1
=============nityanand_counterr : New Iteration===========
Instance : 0

Inside foo before eval.....
clk=1
rstn=1
out=1

Inside foo after eval.....
clk=0
rstn=1
out=1
=============nityanand_counterr : New Iteration===========
Instance : 0

Inside foo before eval.....
clk=0
rstn=1
out=1

Inside foo after eval.....
clk=1
rstn=1
out=2
=============nityanand_counterr : New Iteration===========
Instance : 0

Inside foo before eval.....
clk=1
rstn=1
out=2

Inside foo after eval.....
clk=1
rstn=1
out=2
=============nityanand_counterr : New Iteration===========
Instance : 0

Inside foo before eval.....
clk=1
rstn=1
out=2

Inside foo after eval.....
clk=1
rstn=1
out=2
=============nityanand_counterr : New Iteration===========
Instance : 0

Inside foo before eval.....
clk=1
rstn=1
out=2

Inside foo after eval.....
clk=0
rstn=1
out=2
=============nityanand_counterr : New Iteration===========
Instance : 0

Inside foo before eval.....
clk=0
rstn=1
out=2

Inside foo after eval.....
clk=1
rstn=1
out=3
=============nityanand_counterr : New Iteration===========
Instance : 0

Inside foo before eval.....
clk=1
rstn=1
out=3

Inside foo after eval.....
clk=1
rstn=1
out=3
=============nityanand_counterr : New Iteration===========
Instance : 0

Inside foo before eval.....
clk=1
rstn=1
out=3

Inside foo after eval.....
clk=1
rstn=1
out=3
=============nityanand_counterr : New Iteration===========
Instance : 0

Inside foo before eval.....
clk=1
rstn=1
out=3

Inside foo after eval.....
clk=0
rstn=1
out=3
=============nityanand_counterr : New Iteration===========
Instance : 0

Inside foo before eval.....
clk=0
rstn=1
out=3

Inside foo after eval.....
clk=1
rstn=1
out=4
=============nityanand_counterr : New Iteration===========
Instance : 0

Inside foo before eval.....
clk=1
rstn=1
out=4

Inside foo after eval.....
clk=1
rstn=1
out=4
=============nityanand_counterr : New Iteration===========
Instance : 0

Inside foo before eval.....
clk=1
rstn=1
out=4

Inside foo after eval.....
clk=1
rstn=1
out=4
=============nityanand_counterr : New Iteration===========
Instance : 0

Inside foo before eval.....
clk=1
rstn=1
out=4

Inside foo after eval.....
clk=0
rstn=1
out=4
=============nityanand_counterr : New Iteration===========
Instance : 0

Inside foo before eval.....
clk=0
rstn=1
out=4

Inside foo after eval.....
clk=1
rstn=1
out=5
=============nityanand_counterr : New Iteration===========
Instance : 0

Inside foo before eval.....
clk=1
rstn=1
out=5

Inside foo after eval.....
clk=1
rstn=1
out=5
=============nityanand_counterr : New Iteration===========
Instance : 0

Inside foo before eval.....
clk=1
rstn=1
out=5

Inside foo after eval.....
clk=1
rstn=1
out=5
=============nityanand_counterr : New Iteration===========
Instance : 0

Inside foo before eval.....
clk=1
rstn=1
out=5

Inside foo after eval.....
clk=0
rstn=1
out=5
=============nityanand_counterr : New Iteration===========
Instance : 0

Inside foo before eval.....
clk=0
rstn=1
out=5

Inside foo after eval.....
clk=1
rstn=1
out=6
=============nityanand_counterr : New Iteration===========
Instance : 0

Inside foo before eval.....
clk=1
rstn=1
out=6

Inside foo after eval.....
clk=1
rstn=1
out=6
=============nityanand_counterr : New Iteration===========
Instance : 0

Inside foo before eval.....
clk=1
rstn=1
out=6

Inside foo after eval.....
clk=1
rstn=1
out=6
=============nityanand_counterr : New Iteration===========
Instance : 0

Inside foo before eval.....
clk=1
rstn=1
out=6

Inside foo after eval.....
clk=0
rstn=1
out=6
=============nityanand_counterr : New Iteration===========
Instance : 0

Inside foo before eval.....
clk=0
rstn=1
out=6

Inside foo after eval.....
clk=1
rstn=1
out=7
=============nityanand_counterr : New Iteration===========
Instance : 0

Inside foo before eval.....
clk=1
rstn=1
out=7

Inside foo after eval.....
clk=1
rstn=1
out=7
=============nityanand_counterr : New Iteration===========
Instance : 0

Inside foo before eval.....
clk=1
rstn=1
out=7

Inside foo after eval.....
clk=1
rstn=1
out=7
=============nityanand_counterr : New Iteration===========
Instance : 0

Inside foo before eval.....
clk=1
rstn=1
out=7

Inside foo after eval.....
clk=0
rstn=1
out=7
=============nityanand_counterr : New Iteration===========
Instance : 0

Inside foo before eval.....
clk=0
rstn=1
out=7

Inside foo after eval.....
clk=1
rstn=1
out=8
=============nityanand_counterr : New Iteration===========
Instance : 0

Inside foo before eval.....
clk=1
rstn=1
out=8

Inside foo after eval.....
clk=1
rstn=1
out=8
=============nityanand_counterr : New Iteration===========
Instance : 0

Inside foo before eval.....
clk=1
rstn=1
out=8

Inside foo after eval.....
clk=1
rstn=1
out=8
=============nityanand_counterr : New Iteration===========
Instance : 0

Inside foo before eval.....
clk=1
rstn=1
out=8

Inside foo after eval.....
clk=0
rstn=1
out=8
=============nityanand_counterr : New Iteration===========
Instance : 0

Inside foo before eval.....
clk=0
rstn=1
out=8

Inside foo after eval.....
clk=1
rstn=1
out=9
=============nityanand_counterr : New Iteration===========
Instance : 0

Inside foo before eval.....
clk=1
rstn=1
out=9

Inside foo after eval.....
clk=1
rstn=1
out=9
=============nityanand_counterr : New Iteration===========
Instance : 0

Inside foo before eval.....
clk=1
rstn=1
out=9

Inside foo after eval.....
clk=1
rstn=1
out=9
=============nityanand_counterr : New Iteration===========
Instance : 0

Inside foo before eval.....
clk=1
rstn=1
out=9

Inside foo after eval.....
clk=0
rstn=1
out=9
=============nityanand_counterr : New Iteration===========
Instance : 0

Inside foo before eval.....
clk=0
rstn=1
out=9

Inside foo after eval.....
clk=1
rstn=1
out=10
=============nityanand_counterr : New Iteration===========
Instance : 0

Inside foo before eval.....
clk=1
rstn=1
out=10

Inside foo after eval.....
clk=1
rstn=1
out=10
=============nityanand_counterr : New Iteration===========
Instance : 0

Inside foo before eval.....
clk=1
rstn=1
out=10

Inside foo after eval.....
clk=1
rstn=1
out=10
=============nityanand_counterr : New Iteration===========
Instance : 0

Inside foo before eval.....
clk=1
rstn=1
out=10

Inside foo after eval.....
clk=0
rstn=1
out=10
=============nityanand_counterr : New Iteration===========
Instance : 0

Inside foo before eval.....
clk=0
rstn=1
out=10

Inside foo after eval.....
clk=1
rstn=1
out=11
=============nityanand_counterr : New Iteration===========
Instance : 0

Inside foo before eval.....
clk=1
rstn=1
out=11

Inside foo after eval.....
clk=1
rstn=1
out=11
=============nityanand_counterr : New Iteration===========
Instance : 0

Inside foo before eval.....
clk=1
rstn=1
out=11

Inside foo after eval.....
clk=1
rstn=1
out=11
=============nityanand_counterr : New Iteration===========
Instance : 0

Inside foo before eval.....
clk=1
rstn=1
out=11

Inside foo after eval.....
clk=0
rstn=1
out=11
=============nityanand_counterr : New Iteration===========
Instance : 0

Inside foo before eval.....
clk=0
rstn=1
out=11

Inside foo after eval.....
clk=1
rstn=1
out=12
=============nityanand_counterr : New Iteration===========
Instance : 0

Inside foo before eval.....
clk=1
rstn=1
out=12

Inside foo after eval.....
clk=1
rstn=1
out=12
=============nityanand_counterr : New Iteration===========
Instance : 0

Inside foo before eval.....
clk=1
rstn=1
out=12

Inside foo after eval.....
clk=1
rstn=1
out=12
=============nityanand_counterr : New Iteration===========
Instance : 0

Inside foo before eval.....
clk=1
rstn=1
out=12

Inside foo after eval.....
clk=0
rstn=1
out=12
=============nityanand_counterr : New Iteration===========
Instance : 0

Inside foo before eval.....
clk=0
rstn=1
out=12

Inside foo after eval.....
clk=1
rstn=1
out=13
=============nityanand_counterr : New Iteration===========
Instance : 0

Inside foo before eval.....
clk=1
rstn=1
out=13

Inside foo after eval.....
clk=1
rstn=1
out=13
=============nityanand_counterr : New Iteration===========
Instance : 0

Inside foo before eval.....
clk=1
rstn=1
out=13

Inside foo after eval.....
clk=1
rstn=1
out=13
=============nityanand_counterr : New Iteration===========
Instance : 0

Inside foo before eval.....
clk=1
rstn=1
out=13

Inside foo after eval.....
clk=0
rstn=1
out=13
=============nityanand_counterr : New Iteration===========
Instance : 0

Inside foo before eval.....
clk=0
rstn=1
out=13

Inside foo after eval.....
clk=1
rstn=1
out=14
=============nityanand_counterr : New Iteration===========
Instance : 0

Inside foo before eval.....
clk=1
rstn=1
out=14

Inside foo after eval.....
clk=1
rstn=1
out=14
=============nityanand_counterr : New Iteration===========
Instance : 0

Inside foo before eval.....
clk=1
rstn=1
out=14

Inside foo after eval.....
clk=1
rstn=1
out=14
=============nityanand_counterr : New Iteration===========
Instance : 0

Inside foo before eval.....
clk=1
rstn=1
out=14

Inside foo after eval.....
clk=0
rstn=1
out=14
=============nityanand_counterr : New Iteration===========
Instance : 0

Inside foo before eval.....
clk=0
rstn=1
out=14

Inside foo after eval.....
clk=1
rstn=1
out=15
=============nityanand_counterr : New Iteration===========
Instance : 0

Inside foo before eval.....
clk=1
rstn=1
out=15

Inside foo after eval.....
clk=1
rstn=1
out=15
=============nityanand_counterr : New Iteration===========
Instance : 0

Inside foo before eval.....
clk=1
rstn=1
out=15

Inside foo after eval.....
clk=1
rstn=1
out=15
=============nityanand_counterr : New Iteration===========
Instance : 0

Inside foo before eval.....
clk=1
rstn=1
out=15

Inside foo after eval.....
clk=0
rstn=1
out=15
=============nityanand_counterr : New Iteration===========
Instance : 0

Inside foo before eval.....
clk=0
rstn=1
out=15

Inside foo after eval.....
clk=1
rstn=1
out=0
=============nityanand_counterr : New Iteration===========
Instance : 0

Inside foo before eval.....
clk=1
rstn=1
out=0

Inside foo after eval.....
clk=1
rstn=1
out=0
=============nityanand_counterr : New Iteration===========
Instance : 0

Inside foo before eval.....
clk=1
rstn=1
out=0

Inside foo after eval.....
clk=1
rstn=1
out=0
=============nityanand_counterr : New Iteration===========
Instance : 0

Inside foo before eval.....
clk=1
rstn=1
out=0

Inside foo after eval.....
clk=0
rstn=1
out=0
=============nityanand_counterr : New Iteration===========
Instance : 0

Inside foo before eval.....
clk=0
rstn=1
out=0

Inside foo after eval.....
clk=1
rstn=1
out=1
=============nityanand_counterr : New Iteration===========
Instance : 0

Inside foo before eval.....
clk=1
rstn=1
out=1

Inside foo after eval.....
clk=1
rstn=1
out=1
=============nityanand_counterr : New Iteration===========
Instance : 0

Inside foo before eval.....
clk=1
rstn=1
out=1

Inside foo after eval.....
clk=1
rstn=1
out=1
=============nityanand_counterr : New Iteration===========
Instance : 0

Inside foo before eval.....
clk=1
rstn=1
out=1

Inside foo after eval.....
clk=0
rstn=1
out=1
=============nityanand_counterr : New Iteration===========
Instance : 0

Inside foo before eval.....
clk=0
rstn=1
out=1

Inside foo after eval.....
clk=1
rstn=1
out=2
=============nityanand_counterr : New Iteration===========
Instance : 0

Inside foo before eval.....
clk=1
rstn=1
out=2

Inside foo after eval.....
clk=1
rstn=1
out=2
=============nityanand_counterr : New Iteration===========
Instance : 0

Inside foo before eval.....
clk=1
rstn=1
out=2

Inside foo after eval.....
clk=1
rstn=1
out=2
=============nityanand_counterr : New Iteration===========
Instance : 0

Inside foo before eval.....
clk=1
rstn=1
out=2

Inside foo after eval.....
clk=0
rstn=1
out=2
=============nityanand_counterr : New Iteration===========
Instance : 0

Inside foo before eval.....
clk=0
rstn=1
out=2

Inside foo after eval.....
clk=1
rstn=1
out=3
=============nityanand_counterr : New Iteration===========
Instance : 0

Inside foo before eval.....
clk=1
rstn=1
out=3

Inside foo after eval.....
clk=1
rstn=1
out=3
=============nityanand_counterr : New Iteration===========
Instance : 0

Inside foo before eval.....
clk=1
rstn=1
out=3

Inside foo after eval.....
clk=1
rstn=1
out=3
=============nityanand_counterr : New Iteration===========
Instance : 0

Inside foo before eval.....
clk=1
rstn=1
out=3

Inside foo after eval.....
clk=0
rstn=1
out=3
=============nityanand_counterr : New Iteration===========
Instance : 0

Inside foo before eval.....
clk=0
rstn=1
out=3

Inside foo after eval.....
clk=1
rstn=1
out=4
=============nityanand_counterr : New Iteration===========
Instance : 0

Inside foo before eval.....
clk=1
rstn=1
out=4

Inside foo after eval.....
clk=1
rstn=1
out=4
=============nityanand_counterr : New Iteration===========
Instance : 0

Inside foo before eval.....
clk=1
rstn=1
out=4

Inside foo after eval.....
clk=1
rstn=1
out=4
=============nityanand_counterr : New Iteration===========
Instance : 0

Inside foo before eval.....
clk=1
rstn=1
out=4

Inside foo after eval.....
clk=0
rstn=1
out=4
=============nityanand_counterr : New Iteration===========
Instance : 0

Inside foo before eval.....
clk=0
rstn=1
out=4

Inside foo after eval.....
clk=1
rstn=1
out=5
=============nityanand_counterr : New Iteration===========
Instance : 0

Inside foo before eval.....
clk=1
rstn=1
out=5

Inside foo after eval.....
clk=1
rstn=1
out=5
=============nityanand_counterr : New Iteration===========
Instance : 0

Inside foo before eval.....
clk=1
rstn=1
out=5

Inside foo after eval.....
clk=1
rstn=1
out=5
=============nityanand_counterr : New Iteration===========
Instance : 0

Inside foo before eval.....
clk=1
rstn=1
out=5

Inside foo after eval.....
clk=0
rstn=1
out=5
=============nityanand_counterr : New Iteration===========
Instance : 0

Inside foo before eval.....
clk=0
rstn=1
out=5

Inside foo after eval.....
clk=1
rstn=1
out=6
=============nityanand_counterr : New Iteration===========
Instance : 0

Inside foo before eval.....
clk=1
rstn=1
out=6

Inside foo after eval.....
clk=1
rstn=1
out=6
=============nityanand_counterr : New Iteration===========
Instance : 0

Inside foo before eval.....
clk=1
rstn=1
out=6

Inside foo after eval.....
clk=1
rstn=1
out=6
=============nityanand_counterr : New Iteration===========
Instance : 0

Inside foo before eval.....
clk=1
rstn=1
out=6

Inside foo after eval.....
clk=0
rstn=1
out=6
=============nityanand_counterr : New Iteration===========
Instance : 0

Inside foo before eval.....
clk=0
rstn=1
out=6

Inside foo after eval.....
clk=1
rstn=1
out=7
=============nityanand_counterr : New Iteration===========
Instance : 0

Inside foo before eval.....
clk=1
rstn=1
out=7

Inside foo after eval.....
clk=1
rstn=1
out=7
=============nityanand_counterr : New Iteration===========
Instance : 0

Inside foo before eval.....
clk=1
rstn=1
out=7

Inside foo after eval.....
clk=1
rstn=1
out=7
=============nityanand_counterr : New Iteration===========
Instance : 0

Inside foo before eval.....
clk=1
rstn=1
out=7

Inside foo after eval.....
clk=0
rstn=1
out=7
=============nityanand_counterr : New Iteration===========
Instance : 0

Inside foo before eval.....
clk=0
rstn=1
out=7

Inside foo after eval.....
clk=1
rstn=1
out=8
=============nityanand_counterr : New Iteration===========
Instance : 0

Inside foo before eval.....
clk=1
rstn=1
out=8

Inside foo after eval.....
clk=1
rstn=1
out=8
=============nityanand_counterr : New Iteration===========
Instance : 0

Inside foo before eval.....
clk=1
rstn=1
out=8

Inside foo after eval.....
clk=1
rstn=1
out=8
=============nityanand_counterr : New Iteration===========
Instance : 0

Inside foo before eval.....
clk=1
rstn=1
out=8

Inside foo after eval.....
clk=0
rstn=1
out=8
=============nityanand_counterr : New Iteration===========
Instance : 0

Inside foo before eval.....
clk=0
rstn=1
out=8

Inside foo after eval.....
clk=1
rstn=1
out=9
=============nityanand_counterr : New Iteration===========
Instance : 0

Inside foo before eval.....
clk=1
rstn=1
out=9

Inside foo after eval.....
clk=1
rstn=1
out=9
=============nityanand_counterr : New Iteration===========
Instance : 0

Inside foo before eval.....
clk=1
rstn=1
out=9

Inside foo after eval.....
clk=1
rstn=1
out=9
=============nityanand_counterr : New Iteration===========
Instance : 0

Inside foo before eval.....
clk=1
rstn=1
out=9

Inside foo after eval.....
clk=0
rstn=1
out=9

No. of Data Rows : 2954
ERROR: (internal)  This operation is not defined for display type PrinterOnly.
Can't open viewport for graphics.
binary raw file "/home/nityanand.singh310/eSim-Workspace/final/final.raw"
Reducing trtol to 1 for xspice 'A' devices
Doing analysis at TEMP = 27.000000 and TNOM = 27.000000

Warning: include: has no value, DC 0 assumed
Warning: v2: no DC value, transient time 0 value used
No. of Data Columns : 99  
=============nityanand_counterr : New Iteration===========
Instance : 1

Inside foo before eval.....
clk=0
rstn=0
out=0

Inside foo after eval.....
clk=0
rstn=0
out=0
=============nityanand_counterr : New Iteration===========
Instance : 1

Inside foo before eval.....
clk=0
rstn=0
out=0

Inside foo after eval.....
clk=0
rstn=0
out=0
=============nityanand_counterr : New Iteration===========
Instance : 1

Inside foo before eval.....
clk=0
rstn=0
out=0

Inside foo after eval.....
clk=1
rstn=1
out=1
=============nityanand_counterr : New Iteration===========
Instance : 1

Inside foo before eval.....
clk=1
rstn=1
out=1

Inside foo after eval.....
clk=1
rstn=1
out=1
=============nityanand_counterr : New Iteration===========
Instance : 1

Inside foo before eval.....
clk=1
rstn=1
out=1

Inside foo after eval.....
clk=1
rstn=0
out=1
=============nityanand_counterr : New Iteration===========
Instance : 1

Inside foo before eval.....
clk=1
rstn=0
out=1

Inside foo after eval.....
clk=1
rstn=0
out=1
=============nityanand_counterr : New Iteration===========
Instance : 1

Inside foo before eval.....
clk=1
rstn=0
out=1

Inside foo after eval.....
clk=0
rstn=0
out=1
=============nityanand_counterr : New Iteration===========
Instance : 1

Inside foo before eval.....
clk=0
rstn=0
out=1

Inside foo after eval.....
clk=1
rstn=0
out=0
=============nityanand_counterr : New Iteration===========
Instance : 1

Inside foo before eval.....
clk=1
rstn=0
out=0

Inside foo after eval.....
clk=1
rstn=0
out=0
=============nityanand_counterr : New Iteration===========
Instance : 1

Inside foo before eval.....
clk=1
rstn=0
out=0

Inside foo after eval.....
clk=1
rstn=0
out=0
=============nityanand_counterr : New Iteration===========
Instance : 1

Inside foo before eval.....
clk=1
rstn=0
out=0

Inside foo after eval.....
clk=0
rstn=0
out=0
=============nityanand_counterr : New Iteration===========
Instance : 1

Inside foo before eval.....
clk=0
rstn=0
out=0

Inside foo after eval.....
clk=1
rstn=0
out=0
=============nityanand_counterr : New Iteration===========
Instance : 1

Inside foo before eval.....
clk=1
rstn=0
out=0

Inside foo after eval.....
clk=1
rstn=0
out=0
=============nityanand_counterr : New Iteration===========
Instance : 1

Inside foo before eval.....
clk=1
rstn=0
out=0

Inside foo after eval.....
clk=1
rstn=0
out=0
=============nityanand_counterr : New Iteration===========
Instance : 1

Inside foo before eval.....
clk=1
rstn=0
out=0

Inside foo after eval.....
clk=0
rstn=0
out=0
=============nityanand_counterr : New Iteration===========
Instance : 1

Inside foo before eval.....
clk=0
rstn=0
out=0

Inside foo after eval.....
clk=1
rstn=0
out=0
=============nityanand_counterr : New Iteration===========
Instance : 1

Inside foo before eval.....
clk=1
rstn=0
out=0

Inside foo after eval.....
clk=1
rstn=0
out=0
=============nityanand_counterr : New Iteration===========
Instance : 1

Inside foo before eval.....
clk=1
rstn=0
out=0

Inside foo after eval.....
clk=1
rstn=0
out=0
=============nityanand_counterr : New Iteration===========
Instance : 1

Inside foo before eval.....
clk=1
rstn=0
out=0

Inside foo after eval.....
clk=0
rstn=0
out=0
=============nityanand_counterr : New Iteration===========
Instance : 1

Inside foo before eval.....
clk=0
rstn=0
out=0

Inside foo after eval.....
clk=1
rstn=0
out=0
=============nityanand_counterr : New Iteration===========
Instance : 1

Inside foo before eval.....
clk=1
rstn=0
out=0

Inside foo after eval.....
clk=1
rstn=0
out=0
=============nityanand_counterr : New Iteration===========
Instance : 1

Inside foo before eval.....
clk=1
rstn=0
out=0

Inside foo after eval.....
clk=1
rstn=0
out=0
=============nityanand_counterr : New Iteration===========
Instance : 1

Inside foo before eval.....
clk=1
rstn=0
out=0

Inside foo after eval.....
clk=0
rstn=0
out=0
=============nityanand_counterr : New Iteration===========
Instance : 1

Inside foo before eval.....
clk=0
rstn=0
out=0

Inside foo after eval.....
clk=1
rstn=0
out=0
=============nityanand_counterr : New Iteration===========
Instance : 1

Inside foo before eval.....
clk=1
rstn=0
out=0

Inside foo after eval.....
clk=1
rstn=0
out=0
=============nityanand_counterr : New Iteration===========
Instance : 1

Inside foo before eval.....
clk=1
rstn=0
out=0

Inside foo after eval.....
clk=1
rstn=0
out=0
=============nityanand_counterr : New Iteration===========
Instance : 1

Inside foo before eval.....
clk=1
rstn=0
out=0

Inside foo after eval.....
clk=0
rstn=0
out=0
=============nityanand_counterr : New Iteration===========
Instance : 1

Inside foo before eval.....
clk=0
rstn=0
out=0

Inside foo after eval.....
clk=1
rstn=0
out=0
=============nityanand_counterr : New Iteration===========
Instance : 1

Inside foo before eval.....
clk=1
rstn=0
out=0

Inside foo after eval.....
clk=1
rstn=0
out=0
=============nityanand_counterr : New Iteration===========
Instance : 1

Inside foo before eval.....
clk=1
rstn=0
out=0

Inside foo after eval.....
clk=1
rstn=0
out=0
=============nityanand_counterr : New Iteration===========
Instance : 1

Inside foo before eval.....
clk=1
rstn=0
out=0

Inside foo after eval.....
clk=0
rstn=0
out=0
=============nityanand_counterr : New Iteration===========
Instance : 1

Inside foo before eval.....
clk=0
rstn=0
out=0

Inside foo after eval.....
clk=0
rstn=1
out=0
=============nityanand_counterr : New Iteration===========
Instance : 1

Inside foo before eval.....
clk=0
rstn=1
out=0

Inside foo after eval.....
clk=0
rstn=1
out=0
=============nityanand_counterr : New Iteration===========
Instance : 1

Inside foo before eval.....
clk=0
rstn=1
out=0

Inside foo after eval.....
clk=1
rstn=1
out=1
=============nityanand_counterr : New Iteration===========
Instance : 1

Inside foo before eval.....
clk=1
rstn=1
out=1

Inside foo after eval.....
clk=1
rstn=1
out=1
=============nityanand_counterr : New Iteration===========
Instance : 1

Inside foo before eval.....
clk=1
rstn=1
out=1

Inside foo after eval.....
clk=1
rstn=1
out=1
=============nityanand_counterr : New Iteration===========
Instance : 1

Inside foo before eval.....
clk=1
rstn=1
out=1

Inside foo after eval.....
clk=0
rstn=1
out=1
=============nityanand_counterr : New Iteration===========
Instance : 1

Inside foo before eval.....
clk=0
rstn=1
out=1

Inside foo after eval.....
clk=1
rstn=1
out=2
=============nityanand_counterr : New Iteration===========
Instance : 1

Inside foo before eval.....
clk=1
rstn=1
out=2

Inside foo after eval.....
clk=1
rstn=1
out=2
=============nityanand_counterr : New Iteration===========
Instance : 1

Inside foo before eval.....
clk=1
rstn=1
out=2

Inside foo after eval.....
clk=1
rstn=1
out=2
=============nityanand_counterr : New Iteration===========
Instance : 1

Inside foo before eval.....
clk=1
rstn=1
out=2

Inside foo after eval.....
clk=0
rstn=1
out=2
=============nityanand_counterr : New Iteration===========
Instance : 1

Inside foo before eval.....
clk=0
rstn=1
out=2

Inside foo after eval.....
clk=1
rstn=1
out=3
=============nityanand_counterr : New Iteration===========
Instance : 1

Inside foo before eval.....
clk=1
rstn=1
out=3

Inside foo after eval.....
clk=1
rstn=1
out=3
=============nityanand_counterr : New Iteration===========
Instance : 1

Inside foo before eval.....
clk=1
rstn=1
out=3

Inside foo after eval.....
clk=1
rstn=1
out=3
=============nityanand_counterr : New Iteration===========
Instance : 1

Inside foo before eval.....
clk=1
rstn=1
out=3

Inside foo after eval.....
clk=0
rstn=1
out=3
=============nityanand_counterr : New Iteration===========
Instance : 1

Inside foo before eval.....
clk=0
rstn=1
out=3

Inside foo after eval.....
clk=1
rstn=1
out=4
=============nityanand_counterr : New Iteration===========
Instance : 1

Inside foo before eval.....
clk=1
rstn=1
out=4

Inside foo after eval.....
clk=1
rstn=1
out=4
=============nityanand_counterr : New Iteration===========
Instance : 1

Inside foo before eval.....
clk=1
rstn=1
out=4

Inside foo after eval.....
clk=1
rstn=1
out=4
=============nityanand_counterr : New Iteration===========
Instance : 1

Inside foo before eval.....
clk=1
rstn=1
out=4

Inside foo after eval.....
clk=0
rstn=1
out=4
=============nityanand_counterr : New Iteration===========
Instance : 1

Inside foo before eval.....
clk=0
rstn=1
out=4

Inside foo after eval.....
clk=1
rstn=1
out=5
=============nityanand_counterr : New Iteration===========
Instance : 1

Inside foo before eval.....
clk=1
rstn=1
out=5

Inside foo after eval.....
clk=1
rstn=1
out=5
=============nityanand_counterr : New Iteration===========
Instance : 1

Inside foo before eval.....
clk=1
rstn=1
out=5

Inside foo after eval.....
clk=1
rstn=1
out=5
=============nityanand_counterr : New Iteration===========
Instance : 1

Inside foo before eval.....
clk=1
rstn=1
out=5

Inside foo after eval.....
clk=0
rstn=1
out=5
=============nityanand_counterr : New Iteration===========
Instance : 1

Inside foo before eval.....
clk=0
rstn=1
out=5

Inside foo after eval.....
clk=1
rstn=1
out=6
=============nityanand_counterr : New Iteration===========
Instance : 1

Inside foo before eval.....
clk=1
rstn=1
out=6

Inside foo after eval.....
clk=1
rstn=1
out=6
=============nityanand_counterr : New Iteration===========
Instance : 1

Inside foo before eval.....
clk=1
rstn=1
out=6

Inside foo after eval.....
clk=1
rstn=1
out=6
=============nityanand_counterr : New Iteration===========
Instance : 1

Inside foo before eval.....
clk=1
rstn=1
out=6

Inside foo after eval.....
clk=0
rstn=1
out=6
=============nityanand_counterr : New Iteration===========
Instance : 1

Inside foo before eval.....
clk=0
rstn=1
out=6

Inside foo after eval.....
clk=1
rstn=1
out=7
=============nityanand_counterr : New Iteration===========
Instance : 1

Inside foo before eval.....
clk=1
rstn=1
out=7

Inside foo after eval.....
clk=1
rstn=1
out=7
=============nityanand_counterr : New Iteration===========
Instance : 1

Inside foo before eval.....
clk=1
rstn=1
out=7

Inside foo after eval.....
clk=1
rstn=1
out=7
=============nityanand_counterr : New Iteration===========
Instance : 1

Inside foo before eval.....
clk=1
rstn=1
out=7

Inside foo after eval.....
clk=0
rstn=1
out=7
=============nityanand_counterr : New Iteration===========
Instance : 1

Inside foo before eval.....
clk=0
rstn=1
out=7

Inside foo after eval.....
clk=1
rstn=1
out=8
=============nityanand_counterr : New Iteration===========
Instance : 1

Inside foo before eval.....
clk=1
rstn=1
out=8

Inside foo after eval.....
clk=1
rstn=1
out=8
=============nityanand_counterr : New Iteration===========
Instance : 1

Inside foo before eval.....
clk=1
rstn=1
out=8

Inside foo after eval.....
clk=1
rstn=1
out=8
=============nityanand_counterr : New Iteration===========
Instance : 1

Inside foo before eval.....
clk=1
rstn=1
out=8

Inside foo after eval.....
clk=0
rstn=1
out=8
=============nityanand_counterr : New Iteration===========
Instance : 1

Inside foo before eval.....
clk=0
rstn=1
out=8

Inside foo after eval.....
clk=1
rstn=1
out=9
=============nityanand_counterr : New Iteration===========
Instance : 1

Inside foo before eval.....
clk=1
rstn=1
out=9

Inside foo after eval.....
clk=1
rstn=1
out=9
=============nityanand_counterr : New Iteration===========
Instance : 1

Inside foo before eval.....
clk=1
rstn=1
out=9

Inside foo after eval.....
clk=1
rstn=1
out=9
=============nityanand_counterr : New Iteration===========
Instance : 1

Inside foo before eval.....
clk=1
rstn=1
out=9

Inside foo after eval.....
clk=0
rstn=1
out=9
=============nityanand_counterr : New Iteration===========
Instance : 1

Inside foo before eval.....
clk=0
rstn=1
out=9

Inside foo after eval.....
clk=1
rstn=1
out=10
=============nityanand_counterr : New Iteration===========
Instance : 1

Inside foo before eval.....
clk=1
rstn=1
out=10

Inside foo after eval.....
clk=1
rstn=1
out=10
=============nityanand_counterr : New Iteration===========
Instance : 1

Inside foo before eval.....
clk=1
rstn=1
out=10

Inside foo after eval.....
clk=1
rstn=1
out=10
=============nityanand_counterr : New Iteration===========
Instance : 1

Inside foo before eval.....
clk=1
rstn=1
out=10

Inside foo after eval.....
clk=0
rstn=1
out=10
=============nityanand_counterr : New Iteration===========
Instance : 1

Inside foo before eval.....
clk=0
rstn=1
out=10

Inside foo after eval.....
clk=1
rstn=1
out=11
=============nityanand_counterr : New Iteration===========
Instance : 1

Inside foo before eval.....
clk=1
rstn=1
out=11

Inside foo after eval.....
clk=1
rstn=1
out=11
=============nityanand_counterr : New Iteration===========
Instance : 1

Inside foo before eval.....
clk=1
rstn=1
out=11

Inside foo after eval.....
clk=1
rstn=1
out=11
=============nityanand_counterr : New Iteration===========
Instance : 1

Inside foo before eval.....
clk=1
rstn=1
out=11

Inside foo after eval.....
clk=0
rstn=1
out=11
=============nityanand_counterr : New Iteration===========
Instance : 1

Inside foo before eval.....
clk=0
rstn=1
out=11

Inside foo after eval.....
clk=1
rstn=1
out=12
=============nityanand_counterr : New Iteration===========
Instance : 1

Inside foo before eval.....
clk=1
rstn=1
out=12

Inside foo after eval.....
clk=1
rstn=1
out=12
=============nityanand_counterr : New Iteration===========
Instance : 1

Inside foo before eval.....
clk=1
rstn=1
out=12

Inside foo after eval.....
clk=1
rstn=1
out=12
=============nityanand_counterr : New Iteration===========
Instance : 1

Inside foo before eval.....
clk=1
rstn=1
out=12

Inside foo after eval.....
clk=0
rstn=1
out=12
=============nityanand_counterr : New Iteration===========
Instance : 1

Inside foo before eval.....
clk=0
rstn=1
out=12

Inside foo after eval.....
clk=1
rstn=1
out=13
=============nityanand_counterr : New Iteration===========
Instance : 1

Inside foo before eval.....
clk=1
rstn=1
out=13

Inside foo after eval.....
clk=1
rstn=1
out=13
=============nityanand_counterr : New Iteration===========
Instance : 1

Inside foo before eval.....
clk=1
rstn=1
out=13

Inside foo after eval.....
clk=1
rstn=1
out=13
=============nityanand_counterr : New Iteration===========
Instance : 1

Inside foo before eval.....
clk=1
rstn=1
out=13

Inside foo after eval.....
clk=0
rstn=1
out=13
=============nityanand_counterr : New Iteration===========
Instance : 1

Inside foo before eval.....
clk=0
rstn=1
out=13

Inside foo after eval.....
clk=1
rstn=1
out=14
=============nityanand_counterr : New Iteration===========
Instance : 1

Inside foo before eval.....
clk=1
rstn=1
out=14

Inside foo after eval.....
clk=1
rstn=1
out=14
=============nityanand_counterr : New Iteration===========
Instance : 1

Inside foo before eval.....
clk=1
rstn=1
out=14

Inside foo after eval.....
clk=1
rstn=1
out=14
=============nityanand_counterr : New Iteration===========
Instance : 1

Inside foo before eval.....
clk=1
rstn=1
out=14

Inside foo after eval.....
clk=0
rstn=1
out=14
=============nityanand_counterr : New Iteration===========
Instance : 1

Inside foo before eval.....
clk=0
rstn=1
out=14

Inside foo after eval.....
clk=1
rstn=1
out=15
=============nityanand_counterr : New Iteration===========
Instance : 1

Inside foo before eval.....
clk=1
rstn=1
out=15

Inside foo after eval.....
clk=1
rstn=1
out=15
=============nityanand_counterr : New Iteration===========
Instance : 1

Inside foo before eval.....
clk=1
rstn=1
out=15

Inside foo after eval.....
clk=1
rstn=1
out=15
=============nityanand_counterr : New Iteration===========
Instance : 1

Inside foo before eval.....
clk=1
rstn=1
out=15

Inside foo after eval.....
clk=0
rstn=1
out=15
=============nityanand_counterr : New Iteration===========
Instance : 1

Inside foo before eval.....
clk=0
rstn=1
out=15

Inside foo after eval.....
clk=1
rstn=1
out=0
=============nityanand_counterr : New Iteration===========
Instance : 1

Inside foo before eval.....
clk=1
rstn=1
out=0

Inside foo after eval.....
clk=1
rstn=1
out=0
=============nityanand_counterr : New Iteration===========
Instance : 1

Inside foo before eval.....
clk=1
rstn=1
out=0

Inside foo after eval.....
clk=1
rstn=1
out=0
=============nityanand_counterr : New Iteration===========
Instance : 1

Inside foo before eval.....
clk=1
rstn=1
out=0

Inside foo after eval.....
clk=0
rstn=1
out=0
=============nityanand_counterr : New Iteration===========
Instance : 1

Inside foo before eval.....
clk=0
rstn=1
out=0

Inside foo after eval.....
clk=1
rstn=1
out=1
=============nityanand_counterr : New Iteration===========
Instance : 1

Inside foo before eval.....
clk=1
rstn=1
out=1

Inside foo after eval.....
clk=1
rstn=1
out=1
=============nityanand_counterr : New Iteration===========
Instance : 1

Inside foo before eval.....
clk=1
rstn=1
out=1

Inside foo after eval.....
clk=1
rstn=1
out=1
=============nityanand_counterr : New Iteration===========
Instance : 1

Inside foo before eval.....
clk=1
rstn=1
out=1

Inside foo after eval.....
clk=0
rstn=1
out=1
=============nityanand_counterr : New Iteration===========
Instance : 1

Inside foo before eval.....
clk=0
rstn=1
out=1

Inside foo after eval.....
clk=1
rstn=1
out=2
=============nityanand_counterr : New Iteration===========
Instance : 1

Inside foo before eval.....
clk=1
rstn=1
out=2

Inside foo after eval.....
clk=1
rstn=1
out=2
=============nityanand_counterr : New Iteration===========
Instance : 1

Inside foo before eval.....
clk=1
rstn=1
out=2

Inside foo after eval.....
clk=1
rstn=1
out=2
=============nityanand_counterr : New Iteration===========
Instance : 1

Inside foo before eval.....
clk=1
rstn=1
out=2

Inside foo after eval.....
clk=0
rstn=1
out=2
=============nityanand_counterr : New Iteration===========
Instance : 1

Inside foo before eval.....
clk=0
rstn=1
out=2

Inside foo after eval.....
clk=1
rstn=1
out=3
=============nityanand_counterr : New Iteration===========
Instance : 1

Inside foo before eval.....
clk=1
rstn=1
out=3

Inside foo after eval.....
clk=1
rstn=1
out=3
=============nityanand_counterr : New Iteration===========
Instance : 1

Inside foo before eval.....
clk=1
rstn=1
out=3

Inside foo after eval.....
clk=1
rstn=1
out=3
=============nityanand_counterr : New Iteration===========
Instance : 1

Inside foo before eval.....
clk=1
rstn=1
out=3

Inside foo after eval.....
clk=0
rstn=1
out=3
=============nityanand_counterr : New Iteration===========
Instance : 1

Inside foo before eval.....
clk=0
rstn=1
out=3

Inside foo after eval.....
clk=1
rstn=1
out=4
=============nityanand_counterr : New Iteration===========
Instance : 1

Inside foo before eval.....
clk=1
rstn=1
out=4

Inside foo after eval.....
clk=1
rstn=1
out=4
=============nityanand_counterr : New Iteration===========
Instance : 1

Inside foo before eval.....
clk=1
rstn=1
out=4

Inside foo after eval.....
clk=1
rstn=1
out=4
=============nityanand_counterr : New Iteration===========
Instance : 1

Inside foo before eval.....
clk=1
rstn=1
out=4

Inside foo after eval.....
clk=0
rstn=1
out=4
=============nityanand_counterr : New Iteration===========
Instance : 1

Inside foo before eval.....
clk=0
rstn=1
out=4

Inside foo after eval.....
clk=1
rstn=1
out=5
=============nityanand_counterr : New Iteration===========
Instance : 1

Inside foo before eval.....
clk=1
rstn=1
out=5

Inside foo after eval.....
clk=1
rstn=1
out=5
=============nityanand_counterr : New Iteration===========
Instance : 1

Inside foo before eval.....
clk=1
rstn=1
out=5

Inside foo after eval.....
clk=1
rstn=1
out=5
=============nityanand_counterr : New Iteration===========
Instance : 1

Inside foo before eval.....
clk=1
rstn=1
out=5

Inside foo after eval.....
clk=0
rstn=1
out=5
=============nityanand_counterr : New Iteration===========
Instance : 1

Inside foo before eval.....
clk=0
rstn=1
out=5

Inside foo after eval.....
clk=1
rstn=1
out=6
=============nityanand_counterr : New Iteration===========
Instance : 1

Inside foo before eval.....
clk=1
rstn=1
out=6

Inside foo after eval.....
clk=1
rstn=1
out=6
=============nityanand_counterr : New Iteration===========
Instance : 1

Inside foo before eval.....
clk=1
rstn=1
out=6

Inside foo after eval.....
clk=1
rstn=1
out=6
=============nityanand_counterr : New Iteration===========
Instance : 1

Inside foo before eval.....
clk=1
rstn=1
out=6

Inside foo after eval.....
clk=0
rstn=1
out=6
=============nityanand_counterr : New Iteration===========
Instance : 1

Inside foo before eval.....
clk=0
rstn=1
out=6

Inside foo after eval.....
clk=1
rstn=1
out=7
=============nityanand_counterr : New Iteration===========
Instance : 1

Inside foo before eval.....
clk=1
rstn=1
out=7

Inside foo after eval.....
clk=1
rstn=1
out=7
=============nityanand_counterr : New Iteration===========
Instance : 1

Inside foo before eval.....
clk=1
rstn=1
out=7

Inside foo after eval.....
clk=1
rstn=1
out=7
=============nityanand_counterr : New Iteration===========
Instance : 1

Inside foo before eval.....
clk=1
rstn=1
out=7

Inside foo after eval.....
clk=0
rstn=1
out=7
=============nityanand_counterr : New Iteration===========
Instance : 1

Inside foo before eval.....
clk=0
rstn=1
out=7

Inside foo after eval.....
clk=1
rstn=1
out=8
=============nityanand_counterr : New Iteration===========
Instance : 1

Inside foo before eval.....
clk=1
rstn=1
out=8

Inside foo after eval.....
clk=1
rstn=1
out=8
=============nityanand_counterr : New Iteration===========
Instance : 1

Inside foo before eval.....
clk=1
rstn=1
out=8

Inside foo after eval.....
clk=1
rstn=1
out=8
=============nityanand_counterr : New Iteration===========
Instance : 1

Inside foo before eval.....
clk=1
rstn=1
out=8

Inside foo after eval.....
clk=0
rstn=1
out=8
=============nityanand_counterr : New Iteration===========
Instance : 1

Inside foo before eval.....
clk=0
rstn=1
out=8

Inside foo after eval.....
clk=1
rstn=1
out=9
=============nityanand_counterr : New Iteration===========
Instance : 1

Inside foo before eval.....
clk=1
rstn=1
out=9

Inside foo after eval.....
clk=1
rstn=1
out=9
=============nityanand_counterr : New Iteration===========
Instance : 1

Inside foo before eval.....
clk=1
rstn=1
out=9

Inside foo after eval.....
clk=1
rstn=1
out=9
=============nityanand_counterr : New Iteration===========
Instance : 1

Inside foo before eval.....
clk=1
rstn=1
out=9

Inside foo after eval.....
clk=0
rstn=1
out=9

No. of Data Rows : 3196

Total analysis time (seconds) = 1.71693

Total CPU time (seconds) = 13.372 

Total DRAM available = 257855.305 MB.
DRAM currently available = 27729.070 MB.
Maximum ngspice program size =  397.129 MB.
Current ngspice program size =  332.309 MB.

Shared ngspice pages =   10.305 MB.
Text (code) pages =    6.285 MB.
Stack = 0 bytes.
Library pages =  324.914 MB.

